200
!ProtoMol (built on Mar 15 2005 at 18:54:16) generated this XYZ file by tmorrow. Time : 100000, step : 100000.
U1	      -0.166236167454196       0.310313680219717       0.145164230373158
U2	       0.120344191669318     -0.0578876618474824     -0.0724963293076558
U1	     0.00276570763942878      -0.030433574042644     -0.0563684983341532
U2	     -0.0979246698775519      -0.013960227542643      -0.110784484722143
U1	      -0.226248164671275      -0.119771575520315      -0.159116033728778
U2	     -0.0652409278391317     -0.0256493894825107     -0.0685903086932737
U1	     -0.0347494514052064     -0.0384315523854824       -0.03045722565566
U2	      -0.201740733003888      -0.156205264166583      -0.361292045821135
U1	     -0.0687588758728071      -0.151281854152247       0.170053879229955
U2	    -0.00328027728998016       -0.20054482774158      0.0872658573124272
U1	     -0.0615661123358746      0.0658721435251285      0.0736830956208566
U2	     -0.0646732362542269     0.00117185501453495      -0.172285734078669
U1	       0.196494289958645       0.218671712105515      0.0490794333759757
U2	      0.0943120792057622      -0.216789345053255     -0.0311053514765897
U1	      -0.144730264571765     -0.0727489023743664     -0.0467651920409019
U2	     0.00218398722058043     -0.0771792766537587      0.0561529345183644
U1	     -0.0998124967166796     -0.0952060728660975      0.0220077471998683
U2	       0.101539327473913     -0.0206511377125717      -0.215967549559313
U1	     -0.0637623729050926       0.197862208225711     -0.0425552192220909
U2	       -0.11045914839106       0.111116643284621     -0.0498183096504539
U1	     -0.0238791593873274      -0.276744170574158     -0.0726737580539662
U2	      0.0602425847159351        0.17141019923162     -0.0965880405216953
U1	        -0.2259815007395       0.187330395551649      -0.108493034362549
U2	     -0.0109016926966225      0.0216769915863139      -0.210109281465359
U1	      0.0311523834173098     -0.0432414986831305      0.0784476842423842
U2	     -0.0571172466428311     -0.0562322232533487       0.119141147223176
U1	     -0.0910488385001223     -0.0761417838405649     -0.0228437886022105
U2	      -0.106297110722985       0.321184407274097      -0.266351721028815
U1	      -0.155607471895173      0.0514359926177648        0.32948866324967
U2	      0.0865155986694656      0.0389159950461522      -0.241807066522179
U1	      -0.110892471355232      0.0495364433412721      -0.182600788087782
U2	     0.00343954113456946    -0.00629122688632593      -0.206577645086047
U1	       0.148040140277125      0.0294080728302361     -0.0905702172180617
U2	       0.267373496982616     -0.0594035690145073      -0.140373178113732
U1	      0.0470791993695619       -0.11344567464189       0.042103171890171
U2	      -0.275456382242356     -0.0398884910895197     -0.0862340747664242
U1	     -0.0583929476609408     -0.0651573886809989     -0.0244966843305339
U2	        0.22115050439908     -0.0476960318294153     -0.0942682936019173
U1	      0.0333874508336501     -0.0795743938177187      0.0757409173673426
U2	        0.03987230647412     -0.0922233700632298      0.0595986776874827
U1	     -0.0136691301457386       0.178334021484723      0.0198313282505216
U2	     -0.0495939591083335     0.00183069450765241      0.0532805334136111
U1	     -0.0224244644567051      0.0129153067198106      -0.208063501403234
U2	      0.0877794080693199     -0.0376532982865663      -0.217679735556504
U1	      -0.170886472829283      -0.142761091843154      -0.050845543566108
U2	       -0.17530364559435      0.0341044241484082      -0.165478651872676
U1	     -0.0905397947961169       0.164721401950959        0.16338753099327
U2	     -0.0437764289837733       0.200174050278196     -0.0066686978647422
U1	     -0.0747763295827834     -0.0559649968607314      -0.280235694187441
U2	      -0.165549775296719       0.305324986724497      0.0604177667957734
U1	       0.100370295547415       0.122339177931054      -0.227456762515693
U2	     -0.0915743322788916      0.0394175618478902     -0.0869181558850264
U1	      -0.101873415017251     -0.0848697146665595     -0.0210762203184495
U2	      0.0932276948734216      -0.216016396547522      0.0445763950787168
U1	      -0.106764283261581     -0.0481395657252074        0.14407274064929
U2	       0.135120295098997     -0.0450056483707309     -0.0904212713025144
U1	      -0.086950597780293     -0.0929684569310372       0.102298927866301
U2	     -0.0696197790138658      0.0212012292360245     -0.0112085416306713
U1	     0.00230864748701925      0.0763728558057775     -0.0938685794570921
U2	        0.16917594906888        0.10695296122692      -0.116388180614588
U1	      -0.111077186185438       0.224085071777209      -0.172709438498034
U2	       0.280036173328561    -0.00611884569838047     -0.0099438568238736
U1	     -0.0197681823658966      -0.292999248332262      -0.161909822163665
U2	      -0.147530295585027      -0.101757588892693      0.0559385620504904
U1	       0.111003949042495     -0.0696364177768186      0.0701406661590423
U2	       0.171294299335302     -0.0511389083623432      -0.257625832380038
U1	      0.0334290605026064      0.0430001849004612      -0.106526933945801
U2	      0.0105488130483361      0.0340424906340223     -0.0596770388113651
U1	      0.0815646644190561       0.124663694406114       0.188333323617927
U2	      0.0749116438619028       0.136367949403332      -0.027020220463105
U1	      -0.126131966158404       0.118268941511772      -0.118426592409369
U2	      -0.168145931656083        0.10801721553527     -0.0629603449007328
U1	        0.13298381775786      0.0821731055934775     -0.0280206700449944
U2	      -0.166615165781034      0.0638193064527247       0.105945229623692
U1	      0.0253600350831795     -0.0467726766184983       0.469162798113353
U2	     -0.0761418676101418      0.0632470696880726       0.119192538246152
U1	       0.153898479836706       0.177927055351423       0.326584908206257
U2	       0.166544788916405        0.16790750015996     -0.0339386716573917
U1	      -0.170108905215759      -0.109413053179917       0.167794690549119
U2	      0.0236284989486311    -0.00383943731929334      0.0345870347806552
U1	      -0.272872455619999      -0.137503686802562       0.205851113513424
U2	        0.23906279788491      0.0887084105165213       0.187904343787053
U1	     -0.0315022520659891      -0.158593451212624      0.0978528867406615
U2	     -0.0561240048298342     -0.0891988319713847     -0.0877319659106545
U1	      0.0324406834146948      -0.133155447213446      0.0442911196087338
U2	      -0.123305811516667     0.00393969807513618      -0.203907827018096
U1	       0.237403291389511      -0.209675168300313      -0.140473165391297
U2	      0.0848914165526107       0.197428403415558       0.223965798353238
U1	     -0.0328528573626994     -0.0422166194517153     -0.0408161165930171
U2	     -0.0293803177608209     -0.0318273348977834    -0.00637374519399313
U1	     -0.0377140067576254     0.00271114068550269      -0.108666291573797
U2	      -0.128654803197802     -0.0410096299255009     -0.0503755071332323
U1	     -0.0837346126683799       0.218008999978385     -0.0897509972668452
U2	       0.194977049507573     0.00480108777091558       0.163593926223195
U1	     -0.0271719673524205       0.289574123020019      0.0906802383101714
U2	      0.0361200015767816      -0.122469360850783      0.0622320880429746
U1	      -0.101892542939153     0.00430712028384458     -0.0787736812436897
U2	      0.0885222432265046       0.104798561103573      -0.209822460770319
U1	       0.320751244784876       -0.14958995813003      -0.146878406558887
U2	     -0.0460682174574832     -0.0969638635018862     -0.0893355402824356
U1	       0.219442964806733     -0.0423655214147584      0.0734443238739309
U2	      -0.041379972679837     -0.0933635906262877       0.104739406649765
U1	       0.353909916362884       0.200783011001218        0.30722682693685
U2	      -0.111845083429768      -0.225848323150751      -0.190565923897869
U1	       0.179960621120533      0.0523676952711616       0.192296442509717
U2	       0.179346444851591       0.102017994671121        0.16167660551014
U1	      -0.198907988094385      0.0135451804151656       0.245527370610786
U2	       0.103656181394781      0.0388516878296728       0.137068388846193
U1	      -0.152902661221768     0.00833499243269972      0.0543289643613645
U2	      -0.120597846076784      0.0268440325372455      0.0342302240222994
U1	     -0.0689226328366721       0.156224741546011       0.110633915710315
U2	      -0.238539868153431      0.0618403290876975       -0.18338885155942
U1	      -0.184246622691898      0.0820366194976771      -0.182035751210388
U2	      -0.252905362010762      0.0667582475878866      0.0546521221034155
U1	       0.033411188783315      0.0170162144362078       0.139704773655099
U2	      0.0883585625052704      0.0583195478834833     -0.0336757417819841
U1	      0.0450878874704506        0.10882260374877     -0.0189416277416187
U2	      0.0565044926181054     -0.0624565174701693      0.0496847654042086
U1	       0.128611785683137     -0.0325127519546476      0.0793651161675173
U2	      -0.441330922015618      0.0404820668212793      0.0282692629245862
U1	     -0.0710184146977617      -0.127622362217897      -0.168430701600876
U2	       0.153676356154297       -0.27297084359573      -0.094238678160484
U1	       0.150989727182867       0.124683599207957       0.148816412637651
U2	      0.0869247700766416      0.0350567752084676       0.155260437906922
U1	     -0.0595217686667181     -0.0386711410611456     -0.0624835428895114
U2	     -0.0752415000203105     -0.0155664036931384      -0.124126942512129
U1	      0.0341628096139601       0.152440447328836       0.191654433031909
U2	      0.0539412058035166       0.157723459027918       0.163694377667451
U1	      0.0416511073984711     -0.0866393752592285       0.276973833929364
U2	     -0.0907337595468452       0.017206098650405      -0.169589722366122
U1	       0.189945013223638     -0.0356365028806132     -0.0838446236717676
U2	      -0.310248840551609     -0.0194827395394736      0.0502014690260606
U1	      0.0651854537899462     -0.0693131665283517       -0.11138033440769
U2	    -0.00863394584718773     -0.0791420168793563       -0.14155241511443
U1	     -0.0948905043547052      0.0821813377241661    -0.00318519778158029
U2	     -0.0113167313385244     -0.0629777692205326      0.0208384993256973
U1	      -0.220896801788584      -0.170463489291934     -0.0228541397328217
U2	      -0.105387452176818      -0.129399786012066     -0.0624874318938334
U1	      -0.102582409878886     -0.0252456465031293       0.163310471104163
U2	       0.134966429195012      -0.109510325724367      -0.217666524124965
U1	      -0.191416689139365     -0.0375705433361685      0.0274263207957207
U2	       0.207640620155973       -0.20230154788399       0.237181403418337
U1	      -0.202922313050983       0.190643619147952       0.118782548190458
U2	      -0.072079168437797        0.33305962572866       0.181193041160553
U1	      -0.338855594677169     -0.0147137788684434      0.0703145533886886
U2	       -0.10560045656951      -0.123091544260832     -0.0780902368386141
U1	     0.00190580469396961      -0.197652451117052      -0.127264194966286
U2	       0.363464574169591     -0.0826289195751107      -0.164682911051148
U1	       0.101910552763594       0.189108741348942     -0.0854429339345694
U2	       0.100825831813714        0.14925075751121        -0.1228446872508
U1	       0.298041599390919       0.268257887884218     -0.0150013011109301
U2	      0.0689069440705928      0.0435364265040022      -0.335081293857204
U1	      -0.233851987817464      0.0770778268168968      0.0649136534504189
U2	      -0.157505368053234       0.149622786136954      0.0642261903578626
U1	      0.0347254064696117       0.165848414872333    -0.00261090272291381
U2	      0.0189939365801635      -0.242710995164582       0.187682260966293
U1	       0.176828210450112     -0.0109693989290393      -0.127333531767436
U2	      0.0999699760124102      0.0731204640407119      -0.142796096990262
U1	      0.0251088694628187      -0.123055479961127      -0.141957595576324
U2	      0.0513415152615517      -0.116276888635935     -0.0691801009316286
U1	      0.0858516061985746     -0.0461520978012282       0.207579726133498
U2	       0.120917641187885     -0.0675514373893971      0.0773229385373019
U1	       0.233140549767794      -0.314569607787434       0.120332295884409
U2	        0.22758164409911      -0.170420915884062    -0.00611307068947501
U1	     0.00087564148145512      -0.130562779974566       0.187949405505557
U2	      0.0188917361561408       0.115606840575951      -0.184861536085077
U1	      -0.092350040661777      -0.349566408015002      0.0181276511569753
U2	     -0.0698177204186475      -0.147394136429609     -0.0903578700893666
U1	      0.0744827550787331       0.165203438417613      0.0554543907385604
U2	       0.161673867203806      0.0224637325865639     -0.0393372648928265
U1	      -0.125615044752907     -0.0352091853393595       0.241889622387875
U2	      -0.107820305071095     -0.0832144152313848     -0.0910534231864601
U1	      -0.123205814772835     -0.0572030068707757       0.100691934544778
U2	      -0.182751773704979       0.220971737938281       0.151907361094059
U1	     -0.0143916311678782       0.106250972314323      -0.207860717843278
U2	    -0.00502653902739269     -0.0978844053053865      -0.124986684745916
U1	       -0.18357066934696       0.114671737043504       0.170867089042483
U2	      -0.242660532737198     -0.0613693085037937       0.148301215645635
U1	       0.079366049532417      0.0616940080607944       0.204619468406194
U2	       0.171205289052118      0.0448916516976457       0.247936777910072
U1	      0.0143666072564389      0.0034937083989823      -0.271201459410216
U2	       0.147179226558095      0.0249834945415328     0.00420194875785577
U1	      0.0572984343273554      -0.105206419242835      0.0970703361982549
U2	      0.0706512617469749      -0.107514019565523        0.13346960804666
U1	      -0.181529801228162      0.0174214065530481      0.0573250544013109
U2	      -0.105149850262417      -0.167482463953316      -0.129713484981779
U1	       0.295344442908092       0.183481654830785     -0.0797913585590256
U2	       0.161253891622598       0.163683040009218       0.159519003816681
U1	       0.021057679491737     -0.0415366869736983     -0.0980654223416124
U2	       0.115155436255072     -0.0478239159099088     -0.0590274043265612
U1	     -0.0738661044047803    -0.00630150201769585       0.254607670276521
U2	     -0.0291145583983754      -0.096430976618163       0.267965362988956
U1	       0.100004502860694      0.0608688374939486      0.0236381685364707
U2	       0.195919358701401      -0.183887998971038      -0.120201407287783
U1	       0.137568543699051       0.283025557817566       0.121135430499977
U2	       0.208652417399567       0.294287586428147      -0.121453979404375
U1	       0.231559364743297       -0.14079554467613       0.165641487518502
U2	       0.169811485104375      -0.174375755887472        0.17162847382602
U1	       0.139354106421768      0.0335894843045539      0.0103083267580439
U2	     -0.0859304722521119      -0.111131874283283       0.240221096490475
